Version 4
SHEET 1 880 680
WIRE 64 -48 -176 -48
WIRE 368 -48 64 -48
WIRE 544 -48 544 -64
WIRE 544 -48 464 -48
WIRE -176 -32 -176 -48
WIRE 544 -16 544 -48
WIRE 320 80 320 64
WIRE 320 80 160 80
WIRE 384 80 384 0
WIRE 384 80 320 80
WIRE 384 96 384 80
WIRE 544 96 544 64
WIRE -176 112 -176 48
WIRE 64 112 64 -48
WIRE 160 112 160 80
WIRE 112 192 112 176
WIRE 112 192 80 192
WIRE 112 208 112 192
WIRE 384 208 384 176
WIRE 112 320 112 288
WIRE 112 432 112 400
FLAG -176 112 0
FLAG 112 432 0
FLAG 384 208 0
FLAG 544 96 0
FLAG 80 192 base
FLAG 544 -64 load
FLAG 320 64 gate
SYMBOL res 368 80 R0
SYMATTR InstName R1
SYMATTR Value 10000
SYMBOL voltage -176 -48 R0
WINDOW 123 0 0 Left 0
WINDOW 39 0 0 Left 0
SYMATTR InstName V1
SYMATTR Value 5
SYMBOL voltage 112 304 R0
WINDOW 123 0 0 Left 0
WINDOW 39 0 0 Left 0
SYMATTR InstName V2
SYMATTR Value PULSE(0 3.3 2 0.01 0.01 2 4 5)
SYMBOL pmos 464 0 M270
SYMATTR InstName M1
SYMATTR Value AO6407
SYMBOL res 528 -32 R0
SYMATTR InstName R2
SYMATTR Value 1000
SYMBOL res 96 192 R0
SYMATTR InstName R3
SYMATTR Value 1000
SYMBOL npn 64 176 R270
SYMATTR InstName Q1
TEXT -208 360 Left 2 !.tran 10
